<NUMBER OF ZONES> 2946
<NUMBER OF NODES> 14002
<FIRST THRU NODE> 2947
<NUMBER OF LINKS> 45016
<ORIGINAL HEADER> init_node   term_node   capacity   length   free_flow_time   b   power speed	toll   LINK_TYPE    background_flow;
<END OF METADATA> 




~	init_node   term_node   capacity   length   free_flow_time   b   power speed	toll   LINK_TYPE    background_flow;
	1	23355	100000	0.614171457	0	0.15	4	100000	0	0	0	;
	1	22699	100000	0.426531595	0	0.15	4	100000	0	0	0	;
	23355	22699	1400	0.642998476	0.024	0.15	4	27	0	0	0	;
	23355	26609	1400	0.094801733	0.004	0.15	4	27	0	0	0	;
	23355	1	100000	0.614171457	0	0.15	4	100000	0	0	0	;
	23355	20350	1400	0.174661161	0.006	0.15	4	27	0	0	0	;
	22699	1	100000	0.426531595	0	0.15	4	100000	0	0	0	;
	22699	23355	1400	0.642998476	0.024	0.15	4	27	0	0	0	;
	22699	20350	1400	0.460935147	0.017	0.15	4	27	0	0	0	;
	22699	30816	1400	0.82638342	0.031	0.15	4	27	0	0	0	;
	2	28281	100000	1.069226314	0	0.15	4	100000	0	0	0	;
	2	30816	100000	1.094293955	0	0.15	4	100000	0	0	0	;
	28281	4	100000	0.306013749	0	0.15	4	100000	0	0	0	;
	28281	2	100000	1.069226314	0	0.15	4	100000	0	0	0	;
	28281	26319	1400	1.01238664	0.037	0.15	4	27	0	0	0	;
	30816	22699	1400	0.82638342	0.031	0.15	4	27	0	0	0	;
	30816	2	100000	1.094293955	0	0.15	4	100000	0	0	0	;
	3	26319	100000	0.244424849	0	0.15	4	100000	0	0	0	;
	26319	3	100000	0.244424849	0	0.15	4	100000	0	0	0	;
	26319	21243	1400	1.008407103	0.037	0.15	4	27	0	0	0	;
	26319	26868	1400	0.721272253	0.027	0.15	4	27	0	0	0	;
	26319	28281	1400	1.01238664	0.037	0.15	4	27	0	0	0	;
	4	28281	100000	0.306013749	0	0.15	4	100000	0	0	0	;
	5	21243	100000	0.518726928	0	0.15	4	100000	0	0	0	;
	5	30510	100000	0.354314845	0	0.15	4	100000	0	0	0	;
	21243	5	100000	0.518726928	0	0.15	4	100000	0	0	0	;
	21243	30510	4000	0.697041138	0.016	0.15	4	43	0	0	0	;
	21243	24720	1400	0.289454079	0.011	0.15	4	27	0	0	0	;
	21243	26868	4000	0.500608181	0.012	0.15	4	43	0	0	0	;
	21243	26319	1400	1.008407103	0.037	0.15	4	27	0	0	0	;
	30510	5	100000	0.354314845	0	0.15	4	100000	0	0	0	;
	30510	6	100000	0.311590407	0	0.15	4	100000	0	0	0	;
	30510	21243	4000	0.697041138	0.016	0.15	4	43	0	0	0	;
	30510	25013	1400	0.255271908	0.009	0.15	4	27	0	0	0	;
	30510	11	100000	0.429187455	0	0.15	4	100000	0	0	0	;
	30510	21615	4000	0.281465062	0.007	0.15	4	43	0	0	0	;
	6	21615	100000	0.320042679	0	0.15	4	100000	0	0	0	;
	6	30510	100000	0.311590407	0	0.15	4	100000	0	0	0	;
	21615	29989	4000	0.041821803	0.001	0.15	4	43	0	0	0	;
	21615	6	100000	0.320042679	0	0.15	4	100000	0	0	0	;
	21615	30510	4000	0.281465062	0.007	0.15	4	43	0	0	0	;
	21615	29268	1750	0.337722544	0.009	0.15	4	36	0	0	0	;
	7	28590	100000	0.092078768	0	0.15	4	100000	0	0	0	;
	7	29645	100000	0.058246387	0	0.15	4	100000	0	0	0	;
	28590	7	100000	0.092078768	0	0.15	4	100000	0	0	0	;
	28590	21226	1750	0.031420805	0.001	0.15	4	36	0	0	0	;
	28590	28701	1750	0.045552008	0.001	0.15	4	36	0	0	0	;
	28590	29645	1750	0.159858418	0.004	0.15	4	36	0	0	0	;
	29645	24839	1400	0.257859839	0.01	0.15	4	27	0	0	0	;
	29645	28590	1750	0.159858418	0.004	0.15	4	36	0	0	0	;
	29645	7	100000	0.058246387	0	0.15	4	100000	0	0	0	;
	29645	29268	1750	0.319710398	0.009	0.15	4	36	0	0	0	;
	8	28688	100000	0.577969693	0	0.15	4	100000	0	0	0	;
	8	30950	100000	0.324064601	0	0.15	4	100000	0	0	0	;
	28688	25080	1750	1.142416767	0.032	0.15	4	36	0	0	0	;
	28688	8	100000	0.577969693	0	0.15	4	100000	0	0	0	;
	28688	21226	1750	0.130731411	0.004	0.15	4	36	0	0	0	;
	28688	23911	1750	0.326793253	0.009	0.15	4	36	0	0	0	;
	30950	25896	4000	0.502099044	0.012	0.15	4	43	0	0	0	;
	30950	27944	4000	0.052452625	0.001	0.15	4	43	0	0	0	;
	30950	8	100000	0.324064601	0	0.15	4	100000	0	0	0	;
	30950	27816	4000	0.052913015	0.001	0.15	4	43	0	0	0	;
	9	20834	100000	0.629418768	0	0.15	4	100000	0	0	0	;
	9	24152	100000	0.532734224	0	0.15	4	100000	0	0	0	;
	20834	24152	4000	0.364351425	0.008	0.15	4	43	0	0	0	;
	20834	9	100000	0.629418768	0	0.15	4	100000	0	0	0	;
	20834	25273	4000	3.587727876	0.083	0.15	4	43	0	0	0	;
	20834	23162	4000	0.373033225	0.009	0.15	4	43	0	0	0	;
	24152	9	100000	0.532734224	0	0.15	4	100000	0	0	0	;
	24152	28362	4000	4.342249427	0.101	0.15	4	43	0	0	0	;
	24152	24198	4000	0.846949563	0.02	0.15	4	43	0	0	0	;
	24152	28410	4000	1.161616819	0.027	0.15	4	43	0	0	0	;
	24152	20834	4000	0.364351425	0.008	0.15	4	43	0	0	0	;
	10	23162	100000	0.567906287	0	0.15	4	100000	0	0	0	;
	10	25013	100000	0.477196763	0	0.15	4	100000	0	0	0	;
	23162	25896	1750	0.20356316	0.006	0.15	4	36	0	0	0	;
	23162	21240	1750	2.423929539	0.067	0.15	4	36	0	0	0	;
	23162	10	100000	0.567906287	0	0.15	4	100000	0	0	0	;
	23162	29989	4000	0.634796468	0.015	0.15	4	43	0	0	0	;
	23162	20834	4000	0.373033225	0.009	0.15	4	43	0	0	0	;
	25013	28475	1750	0.26226322	0.007	0.15	4	36	0	0	0	;
	25013	30510	1400	0.255271908	0.009	0.15	4	27	0	0	0	;
	25013	29989	1750	0.261241742	0.007	0.15	4	36	0	0	0	;
	25013	10	100000	0.477196763	0	0.15	4	100000	0	0	0	;
	11	30510	100000	0.429187455	0	0.15	4	100000	0	0	0	;
	11	26961	100000	0.12350565	0	0.15	4	100000	0	0	0	;
	26961	11	100000	0.12350565	0	0.15	4	100000	0	0	0	;
	26961	28578	1400	1.143066273	0.042	0.15	4	27	0	0	0	;
	26961	24720	1400	0.604671266	0.022	0.15	4	27	0	0	0	;
	26961	28475	1400	0.187802953	0.007	0.15	4	27	0	0	0	;
	12	29268	100000	0.270689409	0	0.15	4	100000	0	0	0	;
	12	25896	100000	0.167720559	0	0.15	4	100000	0	0	0	;
	29268	24839	1400	0.503026987	0.019	0.15	4	27	0	0	0	;
	29268	29645	1750	0.319710398	0.009	0.15	4	36	0	0	0	;
	29268	12	100000	0.270689409	0	0.15	4	100000	0	0	0	;
	29268	21615	1750	0.337722544	0.009	0.15	4	36	0	0	0	;
	25896	23162	1750	0.20356316	0.006	0.15	4	36	0	0	0	;
	25896	30950	4000	0.502099044	0.012	0.15	4	43	0	0	0	;
	25896	12	100000	0.167720559	0	0.15	4	100000	0	0	0	;
	25896	28701	1750	0.356918883	0.01	0.15	4	36	0	0	0	;
	25896	29989	4000	0.594668328	0.014	0.15	4	43	0	0	0	;
	13	23438	100000	0.261742053	0	0.15	4	100000	0	0	0	;
	13	21604	100000	0.1206496	0	0.15	4	100000	0	0	0	;
	23438	20117	1750	0.613890278	0.017	0.15	4	36	0	0	0	;
	23438	25273	4000	0.254886194	0.006	0.15	4	43	0	0	0	;
	23438	21604	4000	0.291993222	0.007	0.15	4	43	0	0	0	;
	23438	13	100000	0.261742053	0	0.15	4	100000	0	0	0	;
	21604	23709	1750	4.403821343	0.122	0.15	4	36	0	0	0	;
	21604	23438	4000	0.291993222	0.007	0.15	4	43	0	0	0	;
	21604	29138	4000	0.297070769	0.007	0.15	4	43	0	0	0	;
	21604	13	100000	0.1206496	0	0.15	4	100000	0	0	0	;
	14	24839	100000	0.106088214	0	0.15	4	100000	0	0	0	;
	24839	29237	1750	1.072554232	0.03	0.15	4	36	0	0	0	;
	24839	29268	1400	0.503026987	0.019	0.15	4	27	0	0	0	;
	24839	29645	1400	0.257859839	0.01	0.15	4	27	0	0	0	;
	24839	14	100000	0.106088214	0	0.15	4	100000	0	0	0	;
	24839	16	100000	0.290176049	0	0.15	4	100000	0	0	0	;
	15	20329	100000	0.295182143	0	0.15	4	100000	0	0	0	;
	15	22909	100000	0.254861388	0	0.15	4	100000	0	0	0	;
	20329	28905	1400	0.358526327	0.013	0.15	4	27	0	0	0	;
	20329	22613	1400	0.935081567	0.035	0.15	4	27	0	0	0	;
	20329	22909	1400	0.17727998	0.007	0.15	4	27	0	0	0	;
	20329	15	100000	0.295182143	0	0.15	4	100000	0	0	0	;
	22909	18	100000	0.388853448	0	0.15	4	100000	0	0	0	;
	22909	20329	1400	0.17727998	0.007	0.15	4	27	0	0	0	;
	22909	15	100000	0.254861388	0	0.15	4	100000	0	0	0	;
	22909	16	100000	0.488136054	0	0.15	4	100000	0	0	0	;
	16	22909	100000	0.488136054	0	0.15	4	100000	0	0	0	;
	16	24839	100000	0.290176049	0	0.15	4	100000	0	0	0	;
	17	29237	100000	0.187319947	0	0.15	4	100000	0	0	0	;
	29237	24839	1750	1.072554232	0.03	0.15	4	36	0	0	0	;
	29237	17	100000	0.187319947	0	0.15	4	100000	0	0	0	;
	18	24732	100000	0.239092052	0	0.15	4	100000	0	0	0	;
	18	22909	100000	0.388853448	0	0.15	4	100000	0	0	0	;
	24732	25430	1750	0.092829427	0.003	0.15	4	36	0	0	0	;
	24732	21582	4000	0.146293659	0.003	0.15	4	43	0	0	0	;
	24732	18	100000	0.239092052	0	0.15	4	100000	0	0	0	;
	24732	21102	4000	0.218594428	0.005	0.15	4	43	0	0	0	;
	19	22613	100000	0.09174483	0	0.15	4	100000	0	0	0	;
	19	25095	100000	0.580296691	0	0.15	4	100000	0	0	0	;
	22613	20329	1400	0.935081567	0.035	0.15	4	27	0	0	0	;
	22613	19	100000	0.09174483	0	0.15	4	100000	0	0	0	;
	22613	28905	1400	0.284665755	0.011	0.15	4	27	0	0	0	;
	22613	29722	1400	0.276754157	0.01	0.15	4	27	0	0	0	;
	25095	29256	4000	0.459596854	0.011	0.15	4	43	0	0	0	;
	25095	19	100000	0.580296691	0	0.15	4	100000	0	0	0	;
	25095	20	100000	0.516297228	0	0.15	4	100000	0	0	0	;
	25095	23374	4000	0.270036854	0.006	0.15	4	43	0	0	0	;
	25095	29722	1400	0.796830454	0.03	0.15	4	27	0	0	0	;
	20	19934	100000	0.392231098	0	0.15	4	100000	0	0	0	;
	20	25095	100000	0.516297228	0	0.15	4	100000	0	0	0	;
	19934	23254	1400	0.981844033	0.036	0.15	4	27	0	0	0	;
	19934	27391	3400	0.291815058	0.009	0.15	4	31	0	0	0	;
	19934	23374	3400	0.450474972	0.015	0.15	4	31	0	0	0	;
	19934	20	100000	0.392231098	0	0.15	4	100000	0	0	0	;
	19934	47	100000	0.281977129	0	0.15	4	100000	0	0	0	;
	21	29256	100000	0.22898958	0	0.15	4	100000	0	0	0	;
	21	25670	100000	0.395440507	0	0.15	4	100000	0	0	0	;
	29256	25670	4000	0.357082069	0.008	0.15	4	43	0	0	0	;
	29256	25095	4000	0.459596854	0.011	0.15	4	43	0	0	0	;
	29256	22	100000	0.412005799	0	0.15	4	100000	0	0	0	;
	29256	22752	1400	1.302774675	0.048	0.15	4	27	0	0	0	;
	29256	21	100000	0.22898958	0	0.15	4	100000	0	0	0	;
	25670	22291	4000	0.925863042	0.022	0.15	4	43	0	0	0	;
	25670	24	100000	0.170682847	0	0.15	4	100000	0	0	0	;
	25670	21	100000	0.395440507	0	0.15	4	100000	0	0	0	;
	25670	25	100000	0.318433022	0	0.15	4	100000	0	0	0	;
	25670	20643	1400	0.656364419	0.024	0.15	4	27	0	0	0	;
	25670	31	100000	0.565712951	0	0.15	4	100000	0	0	0	;
	25670	29256	4000	0.357082069	0.008	0.15	4	43	0	0	0	;
	25670	51	100000	0.696694379	0	0.15	4	100000	0	0	0	;
	22	29256	100000	0.412005799	0	0.15	4	100000	0	0	0	;
	23	20643	100000	0.222750048	0	0.15	4	100000	0	0	0	;
	20643	23	100000	0.222750048	0	0.15	4	100000	0	0	0	;
	20643	25	100000	0.598325334	0	0.15	4	100000	0	0	0	;
	20643	29	100000	0.873866218	0	0.15	4	100000	0	0	0	;
	20643	25670	1400	0.656364419	0.024	0.15	4	27	0	0	0	;
	20643	27651	1400	1.514617351	0.056	0.15	4	27	0	0	0	;
	24	25670	100000	0.170682847	0	0.15	4	100000	0	0	0	;
	25	25670	100000	0.318433022	0	0.15	4	100000	0	0	0	;
	25	20643	100000	0.598325334	0	0.15	4	100000	0	0	0	;
	26	22291	100000	0.279961899	0	0.15	4	100000	0	0	0	;
	22291	25670	4000	0.925863042	0.022	0.15	4	43	0	0	0	;
	22291	26	100000	0.279961899	0	0.15	4	100000	0	0	0	;
	22291	27	100000	0.3910277	0	0.15	4	100000	0	0	0	;
	22291	31	100000	0.365758703	0	0.15	4	100000	0	0	0	;
	22291	26090	4000	0.620431915	0.014	0.15	4	43	0	0	0	;
	22291	28390	1750	1.741240282	0.048	0.15	4	36	0	0	0	;
	22291	52	100000	0.621951424	0	0.15	4	100000	0	0	0	;
	27	22291	100000	0.3910277	0	0.15	4	100000	0	0	0	;
	27	26090	100000	0.291250179	0	0.15	4	100000	0	0	0	;
	26090	28	100000	0.276587287	0	0.15	4	100000	0	0	0	;
	26090	20331	1400	0.784944594	0.029	0.15	4	27	0	0	0	;
	26090	27	100000	0.291250179	0	0.15	4	100000	0	0	0	;
	26090	27651	1750	1.024826765	0.028	0.15	4	36	0	0	0	;
	26090	22291	4000	0.620431915	0.014	0.15	4	43	0	0	0	;
	26090	26283	4000	0.615360042	0.014	0.15	4	43	0	0	0	;
	26090	52	100000	0.873962679	0	0.15	4	100000	0	0	0	;
	28	26090	100000	0.276587287	0	0.15	4	100000	0	0	0	;
	29	27651	100000	0.431993955	0	0.15	4	100000	0	0	0	;
	29	20643	100000	0.873866218	0	0.15	4	100000	0	0	0	;
	27651	29	100000	0.431993955	0	0.15	4	100000	0	0	0	;
	27651	20643	1400	1.514617351	0.056	0.15	4	27	0	0	0	;
	27651	23709	1750	2.064449231	0.057	0.15	4	36	0	0	0	;
	27651	26090	1750	1.024826765	0.028	0.15	4	36	0	0	0	;
	27651	30	100000	0.703718408	0	0.15	4	100000	0	0	0	;
	30	27651	100000	0.703718408	0	0.15	4	100000	0	0	0	;
	31	22291	100000	0.365758703	0	0.15	4	100000	0	0	0	;
	31	25670	100000	0.565712951	0	0.15	4	100000	0	0	0	;
	32	20606	100000	0.420448742	0	0.15	4	100000	0	0	0	;
	32	27451	100000	0.450395363	0	0.15	4	100000	0	0	0	;
	20606	27348	3400	0.96300351	0.031	0.15	4	31	0	0	0	;
	20606	22885	1750	1.359844777	0.038	0.15	4	36	0	0	0	;
	20606	202	100000	0.320507563	0	0.15	4	100000	0	0	0	;
	20606	201	100000	0.347588999	0	0.15	4	100000	0	0	0	;
	20606	24355	1750	0.909292874	0.025	0.15	4	36	0	0	0	;
	20606	27451	1750	0.840783476	0.023	0.15	4	36	0	0	0	;
	20606	32	100000	0.420448742	0	0.15	4	100000	0	0	0	;
	20606	25179	1750	0.738271602	0.021	0.15	4	36	0	0	0	;
	27451	34	100000	0.414713808	0	0.15	4	100000	0	0	0	;
	27451	32	100000	0.450395363	0	0.15	4	100000	0	0	0	;
	27451	26545	1750	0.681928215	0.019	0.15	4	36	0	0	0	;
	27451	22615	1750	0.671894533	0.019	0.15	4	36	0	0	0	;
	27451	20606	1750	0.840783476	0.023	0.15	4	36	0	0	0	;
	33	22615	100000	0.294643626	0	0.15	4	100000	0	0	0	;
	22615	20756	1400	0.470411187	0.017	0.15	4	27	0	0	0	;
	22615	33	100000	0.294643626	0	0.15	4	100000	0	0	0	;
	22615	22114	1750	0.78518105	0.022	0.15	4	36	0	0	0	;
	22615	27451	1750	0.671894533	0.019	0.15	4	36	0	0	0	;
	34	26545	100000	0.585878061	0	0.15	4	100000	0	0	0	;
	34	27451	100000	0.414713808	0	0.15	4	100000	0	0	0	;
	26545	34	100000	0.585878061	0	0.15	4	100000	0	0	0	;
	26545	27451	1750	0.681928215	0.019	0.15	4	36	0	0	0	;
	26545	22239	1750	0.050375452	0.001	0.15	4	36	0	0	0	;
	26545	20756	1400	0.800556893	0.03	0.15	4	27	0	0	0	;
	35	27348	100000	0.224928461	0	0.15	4	100000	0	0	0	;
	27348	21088	3400	0.503865985	0.016	0.15	4	31	0	0	0	;
	27348	35	100000	0.224928461	0	0.15	4	100000	0	0	0	;
	27348	20606	3400	0.96300351	0.031	0.15	4	31	0	0	0	;
	27348	203	100000	0.302522751	0	0.15	4	100000	0	0	0	;
	27348	25318	1750	0.450147252	0.013	0.15	4	36	0	0	0	;
	36	24646	100000	0.350027318	0	0.15	4	100000	0	0	0	;
	36	25318	100000	0.265794179	0	0.15	4	100000	0	0	0	;
	24646	25318	1750	0.101983668	0.003	0.15	4	36	0	0	0	;
	24646	178	100000	0.305140967	0	0.15	4	100000	0	0	0	;
	24646	20539	1750	0.554964281	0.015	0.15	4	36	0	0	0	;
	24646	36	100000	0.350027318	0	0.15	4	100000	0	0	0	;
	24646	23668	1750	0.483986392	0.013	0.15	4	36	0	0	0	;
	25318	36	100000	0.265794179	0	0.15	4	100000	0	0	0	;
	25318	24646	1750	0.101983668	0.003	0.15	4	36	0	0	0	;
	25318	178	100000	0.406925721	0	0.15	4	100000	0	0	0	;
	25318	27348	1750	0.450147252	0.013	0.15	4	36	0	0	0	;
	25318	30244	1400	0.375189973	0.014	0.15	4	27	0	0	0	;
	37	20798	100000	0.354839161	0	0.15	4	100000	0	0	0	;
	37	21088	100000	0.095034436	0	0.15	4	100000	0	0	0	;
	20798	21088	3400	0.380187138	0.012	0.15	4	31	0	0	0	;
	20798	37	100000	0.354839161	0	0.15	4	100000	0	0	0	;
	20798	29964	3400	0.156474696	0.005	0.15	4	31	0	0	0	;
	20798	30244	1750	0.513016866	0.014	0.15	4	36	0	0	0	;
	21088	20798	3400	0.380187138	0.012	0.15	4	31	0	0	0	;
	21088	37	100000	0.095034436	0	0.15	4	100000	0	0	0	;
	21088	26464	1400	0.499149141	0.018	0.15	4	27	0	0	0	;
	21088	27348	3400	0.503865985	0.016	0.15	4	31	0	0	0	;
	38	22239	100000	0.356069655	0	0.15	4	100000	0	0	0	;
	38	26117	100000	0.354508083	0	0.15	4	100000	0	0	0	;
	22239	26545	1750	0.050375452	0.001	0.15	4	36	0	0	0	;
	22239	26117	1750	0.477867143	0.013	0.15	4	36	0	0	0	;
	22239	38	100000	0.356069655	0	0.15	4	100000	0	0	0	;
	22239	24279	1400	0.925781457	0.034	0.15	4	27	0	0	0	;
	26117	22239	1750	0.477867143	0.013	0.15	4	36	0	0	0	;
	26117	21812	1400	0.55831536	0.021	0.15	4	27	0	0	0	;
	26117	23942	1750	0.812323249	0.023	0.15	4	36	0	0	0	;
	26117	38	100000	0.354508083	0	0.15	4	100000	0	0	0	;
	39	26464	100000	0.498758318	0	0.15	4	100000	0	0	0	;
	39	24279	100000	0.525803815	0	0.15	4	100000	0	0	0	;
	26464	21088	1400	0.499149141	0.018	0.15	4	27	0	0	0	;
	26464	29964	1400	0.682122598	0.025	0.15	4	27	0	0	0	;
	26464	24279	1400	0.060232696	0.002	0.15	4	27	0	0	0	;
	26464	39	100000	0.498758318	0	0.15	4	100000	0	0	0	;
	24279	26464	1400	0.060232696	0.002	0.15	4	27	0	0	0	;
	24279	21343	1400	0.744803236	0.028	0.15	4	27	0	0	0	;
	24279	22239	1400	0.925781457	0.034	0.15	4	27	0	0	0	;
	24279	39	100000	0.525803815	0	0.15	4	100000	0	0	0	;
	40	25782	100000	0.310220405	0	0.15	4	100000	0	0	0	;
	40	25486	100000	0.617191603	0	0.15	4	100000	0	0	0	;
	25782	24754	3400	0.447417983	0.014	0.15	4	31	0	0	0	;
	25782	40	100000	0.310220405	0	0.15	4	100000	0	0	0	;
	25782	21343	1400	1.047812812	0.039	0.15	4	27	0	0	0	;
	25782	29964	3400	0.557478214	0.018	0.15	4	31	0	0	0	;
	25486	40	100000	0.617191603	0	0.15	4	100000	0	0	0	;
	25486	24754	1400	0.513325458	0.019	0.15	4	27	0	0	0	;
	25486	26641	1400	0.638713121	0.024	0.15	4	27	0	0	0	;
	25486	42	100000	0.376901991	0	0.15	4	100000	0	0	0	;
	25486	26219	1400	1.52074935	0.056	0.15	4	27	0	0	0	;
	41	26641	100000	0.409101731	0	0.15	4	100000	0	0	0	;
	41	24581	100000	0.495014107	0	0.15	4	100000	0	0	0	;
	26641	49	100000	0.290365768	0	0.15	4	100000	0	0	0	;
	26641	23254	1400	0.58252465	0.022	0.15	4	27	0	0	0	;
	26641	24581	1400	0.157187806	0.006	0.15	4	27	0	0	0	;
	26641	25486	1400	0.638713121	0.024	0.15	4	27	0	0	0	;
	26641	41	100000	0.409101731	0	0.15	4	100000	0	0	0	;
	24581	22752	1400	0.695002459	0.026	0.15	4	27	0	0	0	;
	24581	41	100000	0.495014107	0	0.15	4	100000	0	0	0	;
	24581	26641	1400	0.157187806	0.006	0.15	4	27	0	0	0	;
	24581	26219	1400	1.648795552	0.061	0.15	4	27	0	0	0	;
	24581	49	100000	0.195586997	0	0.15	4	100000	0	0	0	;
	42	25486	100000	0.376901991	0	0.15	4	100000	0	0	0	;
	43	24754	100000	0.298742836	0	0.15	4	100000	0	0	0	;
	24754	25782	3400	0.447417983	0.014	0.15	4	31	0	0	0	;
	24754	25486	1400	0.513325458	0.019	0.15	4	27	0	0	0	;
	24754	24153	3400	0.425494986	0.014	0.15	4	31	0	0	0	;
	24754	43	100000	0.298742836	0	0.15	4	100000	0	0	0	;
	44	20736	100000	0.42221883	0	0.15	4	100000	0	0	0	;
	44	25714	100000	0.253709301	0	0.15	4	100000	0	0	0	;
	20736	44	100000	0.42221883	0	0.15	4	100000	0	0	0	;
	20736	23532	1400	0.769355186	0.028	0.15	4	27	0	0	0	;
	20736	27645	1400	0.18954401	0.007	0.15	4	27	0	0	0	;
	20736	24153	1400	0.51585903	0.019	0.15	4	27	0	0	0	;
	25714	19963	3400	0.291869582	0.009	0.15	4	31	0	0	0	;
	25714	44	100000	0.253709301	0	0.15	4	100000	0	0	0	;
	25714	23622	1400	0.518895361	0.019	0.15	4	27	0	0	0	;
	25714	24153	3400	0.339702151	0.011	0.15	4	31	0	0	0	;
	45	28142	100000	0.26764693	0	0.15	4	100000	0	0	0	;
	45	23532	100000	0.158014346	0	0.15	4	100000	0	0	0	;
	28142	24714	3400	0.285843019	0.009	0.15	4	31	0	0	0	;
	28142	62	100000	0.250466727	0	0.15	4	100000	0	0	0	;
	28142	19963	3400	0.051771057	0.002	0.15	4	31	0	0	0	;
	28142	23707	1750	0.904583333	0.025	0.15	4	36	0	0	0	;
	28142	45	100000	0.26764693	0	0.15	4	100000	0	0	0	;
	23532	45	100000	0.158014346	0	0.15	4	100000	0	0	0	;
	23532	19963	3400	0.348721213	0.011	0.15	4	31	0	0	0	;
	23532	20736	1400	0.769355186	0.028	0.15	4	27	0	0	0	;
	23532	30006	3400	0.114205917	0.004	0.15	4	31	0	0	0	;
	46	30912	100000	0.204624957	0	0.15	4	100000	0	0	0	;
	46	27391	100000	0.368913844	0	0.15	4	100000	0	0	0	;
	30912	21849	1750	0.263795389	0.007	0.15	4	36	0	0	0	;
	30912	27391	1400	0.498754526	0.018	0.15	4	27	0	0	0	;
	30912	46	100000	0.204624957	0	0.15	4	100000	0	0	0	;
	30912	22942	1750	0.297815431	0.008	0.15	4	36	0	0	0	;
	27391	19934	3400	0.291815058	0.009	0.15	4	31	0	0	0	;
	27391	46	100000	0.368913844	0	0.15	4	100000	0	0	0	;
	27391	30006	3400	0.05840953	0.002	0.15	4	31	0	0	0	;
	27391	30912	1400	0.498754526	0.018	0.15	4	27	0	0	0	;
	47	19934	100000	0.281977129	0	0.15	4	100000	0	0	0	;
	48	23254	100000	0.105059668	0	0.15	4	100000	0	0	0	;
	48	27645	100000	0.250823305	0	0.15	4	100000	0	0	0	;
	23254	19934	1400	0.981844033	0.036	0.15	4	27	0	0	0	;
	23254	26641	1400	0.58252465	0.022	0.15	4	27	0	0	0	;
	23254	27645	1400	0.216714184	0.008	0.15	4	27	0	0	0	;
	23254	48	100000	0.105059668	0	0.15	4	100000	0	0	0	;
	27645	48	100000	0.250823305	0	0.15	4	100000	0	0	0	;
	27645	23254	1400	0.216714184	0.008	0.15	4	27	0	0	0	;
	27645	20736	1400	0.18954401	0.007	0.15	4	27	0	0	0	;
	27645	30006	1400	0.760546824	0.028	0.15	4	27	0	0	0	;
	49	26641	100000	0.290365768	0	0.15	4	100000	0	0	0	;
	49	24581	100000	0.195586997	0	0.15	4	100000	0	0	0	;
	50	22752	100000	0.235383515	0	0.15	4	100000	0	0	0	;
	22752	29256	1400	1.302774675	0.048	0.15	4	27	0	0	0	;
	22752	30304	1400	1.076430742	0.04	0.15	4	27	0	0	0	;
	22752	50	100000	0.235383515	0	0.15	4	100000	0	0	0	;
	22752	24581	1400	0.695002459	0.026	0.15	4	27	0	0	0	;
	22752	51	100000	0.511438983	0	0.15	4	100000	0	0	0	;
	51	25670	100000	0.696694379	0	0.15	4	100000	0	0	0	;
	51	22752	100000	0.511438983	0	0.15	4	100000	0	0	0	;
	52	26090	100000	0.873962679	0	0.15	4	100000	0	0	0	;
	52	22291	100000	0.621951424	0	0.15	4	100000	0	0	0	;
	53	22290	100000	0.132176201	0	0.15	4	100000	0	0	0	;
	53	26387	100000	0.226975097	0	0.15	4	100000	0	0	0	;
	22290	29558	1400	0.418576358	0.016	0.15	4	27	0	0	0	;
	22290	23383	1400	0.093993005	0.003	0.15	4	27	0	0	0	;
	22290	53	100000	0.132176201	0	0.15	4	100000	0	0	0	;
	22290	26387	1400	0.358859167	0.013	0.15	4	27	0	0	0	;
	26387	22290	1400	0.358859167	0.013	0.15	4	27	0	0	0	;
	26387	29558	1400	0.706748716	0.026	0.15	4	27	0	0	0	;
	26387	25684	1400	0.93973509	0.035	0.15	4	27	0	0	0	;
	26387	53	100000	0.226975097	0	0.15	4	100000	0	0	0	;
	54	23383	100000	0.415141304	0	0.15	4	100000	0	0	0	;
	54	25284	100000	0.432663076	0	0.15	4	100000	0	0	0	;
	23383	54	100000	0.415141304	0	0.15	4	100000	0	0	0	;
	23383	25284	1400	0.65625636	0.024	0.15	4	27	0	0	0	;
	23383	22290	1400	0.093993005	0.003	0.15	4	27	0	0	0	;
	23383	25684	1400	0.396502786	0.015	0.15	4	27	0	0	0	;
	25284	30673	1400	0.528304764	0.02	0.15	4	27	0	0	0	;
	25284	54	100000	0.432663076	0	0.15	4	100000	0	0	0	;
	25284	23383	1400	0.65625636	0.024	0.15	4	27	0	0	0	;
	25284	25326	1400	0.067116166	0.002	0.15	4	27	0	0	0	;
	55	25326	100000	0.224795153	0	0.15	4	100000	0	0	0	;
	25326	55	100000	0.224795153	0	0.15	4	100000	0	0	0	;
	25326	20493	1400	0.745237468	0.028	0.15	4	27	0	0	0	;
	25326	25284	1400	0.067116166	0.002	0.15	4	27	0	0	0	;
	25326	29644	1400	0.656702688	0.024	0.15	4	27	0	0	0	;
	56	25267	100000	0.084355822	0	0.15	4	100000	0	0	0	;
	56	21001	100000	0.21982541	0	0.15	4	100000	0	0	0	;
	25267	21001	1400	0.275164653	0.01	0.15	4	27	0	0	0	;
	25267	56	100000	0.084355822	0	0.15	4	100000	0	0	0	;
	25267	30344	1400	0.653380553	0.024	0.15	4	27	0	0	0	;
	25267	20982	1400	0.34655615	0.013	0.15	4	27	0	0	0	;
	21001	20982	1400	0.541297871	0.02	0.15	4	27	0	0	0	;
	21001	57	100000	0.186099683	0	0.15	4	100000	0	0	0	;
	21001	20493	1400	0.120675436	0.004	0.15	4	27	0	0	0	;
	21001	25267	1400	0.275164653	0.01	0.15	4	27	0	0	0	;
	21001	56	100000	0.21982541	0	0.15	4	100000	0	0	0	;
	57	20493	100000	0.073936674	0	0.15	4	100000	0	0	0	;
	57	21001	100000	0.186099683	0	0.15	4	100000	0	0	0	;
	20493	25326	1400	0.745237468	0.028	0.15	4	27	0	0	0	;
	20493	21001	1400	0.120675436	0.004	0.15	4	27	0	0	0	;
	20493	57	100000	0.073936674	0	0.15	4	100000	0	0	0	;
	20493	30344	1400	0.225820002	0.008	0.15	4	27	0	0	0	;
	58	23707	100000	0.312893996	0	0.15	4	100000	0	0	0	;
	58	30344	100000	0.213062771	0	0.15	4	100000	0	0	0	;
	23707	27811	1750	0.817890214	0.023	0.15	4	36	0	0	0	;
	23707	66	100000	0.395178294	0	0.15	4	100000	0	0	0	;
	23707	58	100000	0.312893996	0	0.15	4	100000	0	0	0	;
	23707	30344	1400	0.33749954	0.012	0.15	4	27	0	0	0	;
	23707	28142	1750	0.904583333	0.025	0.15	4	36	0	0	0	;
	23707	30819	1750	0.419718387	0.012	0.15	4	36	0	0	0	;
	23707	63	100000	0.215518056	0	0.15	4	100000	0	0	0	;
	30344	58	100000	0.213062771	0	0.15	4	100000	0	0	0	;
	30344	23707	1400	0.33749954	0.012	0.15	4	27	0	0	0	;
	30344	20493	1400	0.225820002	0.008	0.15	4	27	0	0	0	;
	30344	25267	1400	0.653380553	0.024	0.15	4	27	0	0	0	;
	59	24153	100000	0.705403801	0	0.15	4	100000	0	0	0	;
	59	23622	100000	0.252905973	0	0.15	4	100000	0	0	0	;
	24153	59	100000	0.705403801	0	0.15	4	100000	0	0	0	;
	24153	24754	3400	0.425494986	0.014	0.15	4	31	0	0	0	;
	24153	25714	3400	0.339702151	0.011	0.15	4	31	0	0	0	;
	24153	20736	1400	0.51585903	0.019	0.15	4	27	0	0	0	;
	23622	25714	1400	0.518895361	0.019	0.15	4	27	0	0	0	;
	23622	61	100000	0.414413747	0	0.15	4	100000	0	0	0	;
	23622	60	100000	0.177060129	0	0.15	4	100000	0	0	0	;
	23622	59	100000	0.252905973	0	0.15	4	100000	0	0	0	;
	60	23622	100000	0.177060129	0	0.15	4	100000	0	0	0	;
	61	19963	100000	0.542576672	0	0.15	4	100000	0	0	0	;
	61	23622	100000	0.414413747	0	0.15	4	100000	0	0	0	;
	19963	62	100000	0.275418027	0	0.15	4	100000	0	0	0	;
	19963	25714	3400	0.291869582	0.009	0.15	4	31	0	0	0	;
	19963	28142	3400	0.051771057	0.002	0.15	4	31	0	0	0	;
	19963	23532	3400	0.348721213	0.011	0.15	4	31	0	0	0	;
	19963	61	100000	0.542576672	0	0.15	4	100000	0	0	0	;
	62	19963	100000	0.275418027	0	0.15	4	100000	0	0	0	;
	62	28142	100000	0.250466727	0	0.15	4	100000	0	0	0	;
	63	23707	100000	0.215518056	0	0.15	4	100000	0	0	0	;
	64	30819	100000	0.187839493	0	0.15	4	100000	0	0	0	;
	30819	23707	1750	0.419718387	0.012	0.15	4	36	0	0	0	;
	30819	64	100000	0.187839493	0	0.15	4	100000	0	0	0	;
	30819	30092	1750	0.535986603	0.015	0.15	4	36	0	0	0	;
	30819	23831	1750	0.260915702	0.007	0.15	4	36	0	0	0	;
	65	21102	100000	0.265129876	0	0.15	4	100000	0	0	0	;
	65	27811	100000	0.480833032	0	0.15	4	100000	0	0	0	;
	21102	65	100000	0.265129876	0	0.15	4	100000	0	0	0	;
	21102	24732	4000	0.218594428	0.005	0.15	4	43	0	0	0	;
	21102	23911	4000	0.490378885	0.011	0.15	4	43	0	0	0	;
	21102	24773	1750	0.198771073	0.006	0.15	4	36	0	0	0	;
	27811	65	100000	0.480833032	0	0.15	4	100000	0	0	0	;
	27811	24773	1750	0.669013922	0.019	0.15	4	36	0	0	0	;
	27811	29644	1400	0.207141256	0.008	0.15	4	27	0	0	0	;
	27811	23707	1750	0.817890214	0.023	0.15	4	36	0	0	0	;
	27811	66	100000	0.398084203	0	0.15	4	100000	0	0	0	;
	66	27811	100000	0.398084203	0	0.15	4	100000	0	0	0	;
	66	23707	100000	0.395178294	0	0.15	4	100000	0	0	0	;
	67	27816	100000	0.355082298	0	0.15	4	100000	0	0	0	;
	67	29644	100000	0.212139089	0	0.15	4	100000	0	0	0	;
	27816	30950	4000	0.052913015	0.001	0.15	4	43	0	0	0	;
	27816	67	100000	0.355082298	0	0.15	4	100000	0	0	0	;
	27816	30673	4000	0.912621072	0.021	0.15	4	43	0	0	0	;
	27816	27944	4000	0.052383643	0.001	0.15	4	43	0	0	0	;
	29644	27811	1400	0.207141256	0.008	0.15	4	27	0	0	0	;
	29644	25326	1400	0.656702688	0.024	0.15	4	27	0	0	0	;
	29644	67	100000	0.212139089	0	0.15	4	100000	0	0	0	;
	29644	23911	1400	0.487549796	0.018	0.15	4	27	0	0	0	;
	68	29397	100000	0.232653983	0	0.15	4	100000	0	0	0	;
	68	30749	100000	0.473259384	0	0.15	4	100000	0	0	0	;
	29397	27059	1750	0.480145426	0.013	0.15	4	36	0	0	0	;
	29397	28086	1750	0.438003034	0.012	0.15	4	36	0	0	0	;
	29397	68	100000	0.232653983	0	0.15	4	100000	0	0	0	;
	29397	27367	1750	1.043285812	0.029	0.15	4	36	0	0	0	;
	30749	26612	1750	0.066621442	0.002	0.15	4	36	0	0	0	;
	30749	28773	1400	1.31218397	0.049	0.15	4	27	0	0	0	;
	30749	24906	1750	0.039970881	0.001	0.15	4	36	0	0	0	;
	30749	68	100000	0.473259384	0	0.15	4	100000	0	0	0	;
	69	24906	100000	0.474385657	0	0.15	4	100000	0	0	0	;
	24906	28086	1750	0.280431383	0.008	0.15	4	36	0	0	0	;
	24906	69	100000	0.474385657	0	0.15	4	100000	0	0	0	;
	24906	30749	1750	0.039970881	0.001	0.15	4	36	0	0	0	;
	24906	25427	1400	1.192539604	0.044	0.15	4	27	0	0	0	;
	24906	27367	1750	0.946712985	0.026	0.15	4	36	0	0	0	;
	70	20851	100000	0.603828136	0	0.15	4	100000	0	0	0	;
	70	26612	100000	0.537100195	0	0.15	4	100000	0	0	0	;
	20851	26704	1400	1.377899156	0.051	0.15	4	27	0	0	0	;
	20851	70	100000	0.603828136	0	0.15	4	100000	0	0	0	;
	20851	26612	1750	0.17252622	0.005	0.15	4	36	0	0	0	;
	20851	26393	1750	0.143022858	0.004	0.15	4	36	0	0	0	;
	26612	28394	1750	1.503928405	0.042	0.15	4	36	0	0	0	;
	26612	30749	1750	0.066621442	0.002	0.15	4	36	0	0	0	;
	26612	20851	1750	0.17252622	0.005	0.15	4	36	0	0	0	;
	26612	70	100000	0.537100195	0	0.15	4	100000	0	0	0	;
	71	26704	100000	0.327436849	0	0.15	4	100000	0	0	0	;
	71	21966	100000	0.278183774	0	0.15	4	100000	0	0	0	;
	26704	71	100000	0.327436849	0	0.15	4	100000	0	0	0	;
	26704	20851	1400	1.377899156	0.051	0.15	4	27	0	0	0	;
	26704	21503	1400	0.616893998	0.023	0.15	4	27	0	0	0	;
	26704	121	100000	0.2384139	0	0.15	4	100000	0	0	0	;
	26704	21966	1400	0.242343377	0.009	0.15	4	27	0	0	0	;
	21966	71	100000	0.278183774	0	0.15	4	100000	0	0	0	;
	21966	21720	1400	0.347680141	0.013	0.15	4	27	0	0	0	;
	21966	121	100000	0.268879418	0	0.15	4	100000	0	0	0	;
	21966	26704	1400	0.242343377	0.009	0.15	4	27	0	0	0	;
	21966	23681	1400	0.805272453	0.03	0.15	4	27	0	0	0	;
	72	26506	100000	0.461069907	0	0.15	4	100000	0	0	0	;
	72	28713	100000	0.275340858	0	0.15	4	100000	0	0	0	;
	26506	27552	1400	0.848375771	0.031	0.15	4	27	0	0	0	;
	26506	22950	1750	0.156420575	0.004	0.15	4	36	0	0	0	;
	26506	30824	1750	0.606313893	0.017	0.15	4	36	0	0	0	;
	26506	72	100000	0.461069907	0	0.15	4	100000	0	0	0	;
	28713	26774	1750	0.405146804	0.011	0.15	4	36	0	0	0	;
	28713	72	100000	0.275340858	0	0.15	4	100000	0	0	0	;
	28713	28773	1750	1.18804792	0.033	0.15	4	36	0	0	0	;
	28713	30824	1750	0.288387483	0.008	0.15	4	36	0	0	0	;
	73	30583	100000	0.320462682	0	0.15	4	100000	0	0	0	;
	73	28773	100000	0.338841102	0	0.15	4	100000	0	0	0	;
	30583	22256	1750	0.130000778	0.004	0.15	4	36	0	0	0	;
	30583	25427	1400	0.917654724	0.034	0.15	4	27	0	0	0	;
	30583	73	100000	0.320462682	0	0.15	4	100000	0	0	0	;
	30583	21240	1750	0.016223648	0	0.15	4	36	0	0	0	;
	28773	75	100000	0.88195739	0	0.15	4	100000	0	0	0	;
	28773	21240	1750	0.222044814	0.006	0.15	4	36	0	0	0	;
	28773	73	100000	0.338841102	0	0.15	4	100000	0	0	0	;
	28773	28713	1750	1.18804792	0.033	0.15	4	36	0	0	0	;
	28773	30749	1400	1.31218397	0.049	0.15	4	27	0	0	0	;
	74	21836	100000	0.650186272	0	0.15	4	100000	0	0	0	;
	74	21240	100000	0.670993735	0	0.15	4	100000	0	0	0	;
	21836	149	100000	0.393170245	0	0.15	4	100000	0	0	0	;
	21836	24198	1400	0.941932814	0.035	0.15	4	27	0	0	0	;
	21836	74	100000	0.650186272	0	0.15	4	100000	0	0	0	;
	21240	30583	1750	0.016223648	0	0.15	4	36	0	0	0	;
	21240	148	100000	0.416873645	0	0.15	4	100000	0	0	0	;
	21240	28773	1750	0.222044814	0.006	0.15	4	36	0	0	0	;
	21240	23162	1750	2.423929539	0.067	0.15	4	36	0	0	0	;
	21240	75	100000	0.906157827	0	0.15	4	100000	0	0	0	;
	21240	74	100000	0.670993735	0	0.15	4	100000	0	0	0	;
	75	28773	100000	0.88195739	0	0.15	4	100000	0	0	0	;
	75	21240	100000	0.906157827	0	0.15	4	100000	0	0	0	;
	76	29677	100000	0.787852167	0	0.15	4	100000	0	0	0	;
	76	30381	100000	0.60736687	0	0.15	4	100000	0	0	0	;
	29677	76	100000	0.787852167	0	0.15	4	100000	0	0	0	;
	29677	30381	1750	0.795683901	0.022	0.15	4	36	0	0	0	;
	29677	26332	1750	0.739206479	0.021	0.15	4	36	0	0	0	;
	29677	87	100000	0.408091075	0	0.15	4	100000	0	0	0	;
	29677	88	100000	0.684214629	0	0.15	4	100000	0	0	0	;
	29677	25091	1750	0.619397007	0.017	0.15	4	36	0	0	0	;
	30381	76	100000	0.60736687	0	0.15	4	100000	0	0	0	;
	30381	27552	1400	0.529912805	0.02	0.15	4	27	0	0	0	;
	30381	78	100000	0.536547854	0	0.15	4	100000	0	0	0	;
	30381	30824	1750	0.905264479	0.025	0.15	4	36	0	0	0	;
	30381	29677	1750	0.795683901	0.022	0.15	4	36	0	0	0	;